-------------------------------------------------------
          Amber 18 SANDER                              2018
          -------------------------------------------------------

  [-O]verwriting output

File Assignments:

 Here is the input file:

Equilibration:constant pressure
 &cntrl
  imin  = 0, ntx = 1, irest = 0,
  ntf   = 1,  ntc = 1,
  nstlim= 100000, dt= 0.001,
  cut   = 10.0,
  temp0 = 300.0,
  ntpr  = 5000, ntwx = 5000,
  ntt   = 2,
  ntb   = 2,  ntp = 1,
  iwrap = 1,
  ig    = -1,
 /

--------------------------------------------------------------------------------
   1.  RESOURCE   USE:
--------------------------------------------------------------------------------

 getting box info from netcdf restart file
 NATOM  =   20776 NTYPES =      18 NBONH =   20017 MBONA  =     760
 NTHETH =    1560 MTHETA =    1018 NPHIH =    3197 MPHIA  =    3205
 NHPARM =       0 NPARM  =       0 NNB   =   33584 NRES   =    6549
 NBONA  =     760 NTHETA =    1018 NPHIA =    3205 NUMBND =      56
 NUMANG =     121 NPTRA  =     162 NATYP =      32 NPHB   =       1
 IFBOX  =       1 NMXRS  =      24 IFCAP =       0 NEXTRA =       0
 NCOPY  =       0

     BOX TYPE: RECTILINEAR
Note: ig = -1. Setting random seed to    92732 based on wallclock time in microseconds
      and disabling the synchronization of random numbers between tasks
      to improve performance.

--------------------------------------------------------------------------------
   2.  CONTROL  DATA  FOR  THE  RUN
--------------------------------------------------------------------------------

default_name

General flags:
     imin    =       0, nmropt  =       0

Nature and format of input:
     ntx     =       1, irest   =       0, ntrx    =       1

Nature and format of output:
     ntxo    =       2, ntpr    =    5000, ntrx    =       1, ntwr    =  100000
     iwrap   =       1, ntwx    =    5000, ntwv    =       0, ntwe    =       0
     ioutfm  =       1, ntwprt  =       0, idecomp =       0, rbornstat=      0

Potential function:
     ntf     =       1, ntb     =       2, igb     =       0, nsnb    =      25
     ipol    =       0, gbsa    =       0, iesp    =       0
     dielc   =   1.00000, cut     =  10.00000, intdiel =   1.00000

Frozen or restrained atoms:
     ibelly  =       0, ntr     =       0

Molecular dynamics:
     nstlim  =    100000, nscm    =      1000, nrespa  =         1
     t       =   0.00000, dt      =   0.00100, vlimit  =  20.00000

Anderson (strong collision) temperature regulation:
     ig      =   92732, vrand   =    1000
     temp0   = 300.00000, tempi   =   0.00000

Pressure regulation:
     ntp     =       1
     pres0   =   1.00000, comp    =  44.60000, taup    =   1.00000

Ewald parameters:
     verbose =       0, ew_type =       0, nbflag  =       1, use_pme =       1
     vdwmeth =       1, eedmeth =       1, netfrc  =       1
     Box X =   63.797   Box Y =   61.269   Box Z =   63.933
     Alpha =   90.000   Beta  =   90.000   Gamma =   90.000
     NFFT1 =   64       NFFT2 =   64       NFFT3 =   64
     Cutoff=   10.000   Tol   =0.100E-04
     Ewald Coefficient =  0.27511
     Interpolation order =    4

--------------------------------------------------------------------------------
   3.  ATOMIC COORDINATES AND VELOCITIES
--------------------------------------------------------------------------------

default_name
 begin time read from input coords =     5.000 ps

 Number of triangulated 3-point waters found:     6445

     Sum of charges from parm topology file =  -0.00000005
     Forcing neutrality...

--------------------------------------------------------------------------------
   4.  RESULTS
 NSTEP =        0   TIME(PS) =       0.000  TEMP(K) =     0.00  PRESS = -1371.1
 Etot   =    -65630.2839  EKtot   =         0.0000  EPtot      =    -65630.2839
 BOND   =     12549.8213  ANGLE   =       842.8094  DIHED      =      1181.8612
 1-4 NB =       345.3002  1-4 EEL =      3902.3007  VDWAALS    =     12594.7721
 EELEC  =    -97047.1487  EHBOND  =         0.0000  RESTRAINT  =         0.0000
 EKCMT  =         0.0000  VIRIAL  =      7397.8388  VOLUME     =    249900.3593
                                                    Density    =         0.8444
 Ewald error estimate:   0.6971E-04
 ------------------------------------------------------------------------------

      A V E R A G E S   O V E R  100000 S T E P S

 NSTEP =   100000   TIME(PS) =     100.000  TEMP(K) =   297.20  PRESS =   -48.3
 Etot   =    -48791.2263  EKtot   =     18404.1427  EPtot      =    -67195.3690
 BOND   =     12627.9904  ANGLE   =       814.1647  DIHED      =      1169.8059
 1-4 NB =       332.2196  1-4 EEL =      3925.5184  VDWAALS    =     12534.9593
 EELEC  =    -98600.0272  EHBOND  =         0.0000  RESTRAINT  =         0.0000
 EKCMT  =      5733.3300  VIRIAL  =      5967.7908  VOLUME     =    205634.7657
                                                    Density    =         1.0285
 Ewald error estimate:   0.6476E-04
 ------------------------------------------------------------------------------

      R M S  F L U C T U A T I O N S

 NSTEP =   100000   TIME(PS) =     100.000  TEMP(K) =    15.42  PRESS =   212.0
 Etot   =      2179.9020  EKtot   =       955.1217  EPtot      =      1250.8868
 BOND   =       345.7069  ANGLE   =        36.3397  DIHED      =        14.0479
 1-4 NB =         8.2751  1-4 EEL =        19.8852  VDWAALS    =       428.7849
 EELEC  =      1319.2519  EHBOND  =         0.0000  RESTRAINT  =         0.0000
 EKCMT  =       272.7876  VIRIAL  =       916.0212  VOLUME     =     10496.0567
                                                    Density    =         0.0473
 Ewald error estimate:   0.4919E-04
 ------------------------------------------------------------------------------
